test/test_files/texas_am/ACTIVSg500/ACTIVSg500.RAW
 0,    100.00, 33, 0, 0, 60.00       / May 16, 2017 17:17:11; Simulator Version 20 Beta; BuildDate 2017_5_15
This is a synthetic power system model that does NOT represent the actual grid. It was developed as part of the US ARPA-E Grid Data research project and contains no CEII.
Reference: A.B. Birchfield, T. Xu, K.M. Gegner, K.S. Shetye, and T.J. Overbye, "Grid Structural Characteristics as Validation Criteria for Synthetic Networks," to appear, IEEE Transactions on Power Systems, 2017.
    1,'WINNSBORO 0 ', 138.0000,1,   1,   2,   1,1.01215947, -10.768348, 1.10000, 0.90000, 1.10000, 0.90000
    2,'WINNSBORO 1 ', 138.0000,1,   1,   2,   1,1.01157975, -10.840156, 1.10000, 0.90000, 1.10000, 0.90000
    3,'COLUMBIA 1~3', 138.0000,1,   1,   2,   1,1.00623024, -12.071857, 1.10000, 0.90000, 1.10000, 0.90000
    4,'COLUMBIA 1~4', 138.0000,1,   1,   2,   1,1.00406623, -12.322717, 1.10000, 0.90000, 1.10000, 0.90000
    5,'SMYRNA 0    ', 138.0000,1,   1,   1,   1,1.01469886,  -1.264301, 1.10000, 0.90000, 1.10000, 0.90000
    6,'SMYRNA 1    ', 138.0000,1,   1,   1,   1,1.01465118,  -1.270407, 1.10000, 0.90000, 1.10000, 0.90000
    7,'EASTOVER 2 0', 345.0000,1,   1,   2,   1,1.03386331,  -6.931070, 1.10000, 0.90000, 1.10000, 0.90000
    8,'EASTOVER 2 1', 138.0000,1,   1,   2,   1,1.02696311,  -8.712157, 1.10000, 0.90000, 1.10000, 0.90000
    9,'EASTOVER 2 2',  13.8000,2,   1,   2,   1,1.03999996,  -4.132565, 1.10000, 0.90000, 1.10000, 0.90000
   10,'CHAPPELLS ~6', 138.0000,1,   1,   2,   1,1.01670539, -13.818521, 1.10000, 0.90000, 1.10000, 0.90000
   11,'CHAPPELLS ~7', 138.0000,1,   1,   2,   1,1.01666868, -13.822668, 1.10000, 0.90000, 1.10000, 0.90000
   12,'PELZER 0    ', 138.0000,1,   1,   1,   1,0.99180090, -14.544799, 1.10000, 0.90000, 1.10000, 0.90000
   13,'PELZER 1    ', 138.0000,1,   1,   1,   1,0.99125338, -14.609078, 1.10000, 0.90000, 1.10000, 0.90000
   14,'SENECA 3 0  ', 345.0000,1,   1,   1,   1,1.03008711,  -3.407512, 1.10000, 0.90000, 1.10000, 0.90000
   15,'SENECA 3 1  ', 138.0000,1,   1,   1,   1,1.02138042,  -6.028249, 1.10000, 0.90000, 1.10000, 0.90000
   16,'SENECA 3 2  ',  13.8000,2,   1,   1,   1,1.03999996,  -0.563895, 1.10000, 0.90000, 1.10000, 0.90000
   17,'SENECA 3 3  ',  13.8000,3,   1,   1,   1,1.03999996,   0.000000, 1.10000, 0.90000, 1.10000, 0.90000
   18,'SENECA 3 4  ',  13.8000,2,   1,   1,   1,1.03999996,   0.891476, 1.10000, 0.90000, 1.10000, 0.90000
   19,'MONETTA 0   ', 138.0000,1,   1,   2,   1,1.01834774, -14.296139, 1.10000, 0.90000, 1.10000, 0.90000
   20,'MONETTA 1   ', 138.0000,1,   1,   2,   1,1.01827741, -14.305529, 1.10000, 0.90000, 1.10000, 0.90000
   21,'LEXINGTON ~2', 138.0000,1,   1,   2,   1,1.00952005, -12.341430, 1.10000, 0.90000, 1.10000, 0.90000
   22,'LEXINGTON ~3', 138.0000,1,   1,   2,   1,1.00739408, -12.594211, 1.10000, 0.90000, 1.10000, 0.90000
   23,'WELLFORD 0  ', 345.0000,1,   1,   1,   1,1.02729702,  -7.930431, 1.10000, 0.90000, 1.10000, 0.90000
   24,'WELLFORD 1  ', 138.0000,1,   1,   1,   1,1.01234269, -10.816709, 1.10000, 0.90000, 1.10000, 0.90000
   25,'WELLFORD 2  ', 138.0000,1,   1,   1,   1,1.01230705, -10.821133, 1.10000, 0.90000, 1.10000, 0.90000
   26,'WELLFORD 3  ', 138.0000,1,   1,   1,   1,1.01200902, -10.860073, 1.10000, 0.90000, 1.10000, 0.90000
   27,'LAURENS 0   ', 138.0000,1,   1,   1,   1,1.01318765, -16.550327, 1.10000, 0.90000, 1.10000, 0.90000
   28,'LAURENS 1   ', 138.0000,1,   1,   1,   1,1.01210082, -16.683236, 1.10000, 0.90000, 1.10000, 0.90000
   29,'COLUMBIA 1~1', 138.0000,1,   1,   2,   1,1.00943136, -14.585454, 1.10000, 0.90000, 1.10000, 0.90000
   30,'COLUMBIA 1~2', 138.0000,1,   1,   2,   1,1.00794280, -14.761897, 1.10000, 0.90000, 1.10000, 0.90000
   31,'WINDSOR 0   ', 138.0000,1,   1,   2,   1,1.03245354, -17.056434, 1.10000, 0.90000, 1.10000, 0.90000
   32,'WINDSOR 1   ', 138.0000,1,   1,   2,   1,1.03230786, -17.073560, 1.10000, 0.90000, 1.10000, 0.90000
   33,'PROSPERITY 0', 138.0000,1,   1,   2,   1,1.00620258, -15.223412, 1.10000, 0.90000, 1.10000, 0.90000
   34,'PROSPERITY 1', 138.0000,1,   1,   2,   1,1.00582945, -15.267529, 1.10000, 0.90000, 1.10000, 0.90000
   35,'NORTH AUGU~3', 138.0000,1,   1,   2,   1,1.01765645, -15.888311, 1.10000, 0.90000, 1.10000, 0.90000
   36,'NORTH AUGU~4', 138.0000,1,   1,   2,   1,1.01706290, -15.957294, 1.10000, 0.90000, 1.10000, 0.90000
   37,'LANDO 0     ', 138.0000,1,   1,   1,   1,1.01932597,  -0.912831, 1.10000, 0.90000, 1.10000, 0.90000
   38,'LANDO 1     ', 138.0000,1,   1,   1,   1,1.01932406,  -0.913092, 1.10000, 0.90000, 1.10000, 0.90000
   39,'GAFFNEY 3 0 ', 345.0000,1,   1,   1,   1,1.02953601,  -7.806151, 1.10000, 0.90000, 1.10000, 0.90000
   40,'GAFFNEY 3 1 ', 138.0000,1,   1,   1,   1,1.02308011,  -9.013592, 1.10000, 0.90000, 1.10000, 0.90000
   41,'GAFFNEY 3 2 ', 138.0000,1,   1,   1,   1,1.02212632,  -9.132880, 1.10000, 0.90000, 1.10000, 0.90000
   42,'CLARKS HIL~4', 138.0000,1,   1,   2,   1,1.02411819, -13.629012, 1.10000, 0.90000, 1.10000, 0.90000
   43,'CLARKS HIL~5', 138.0000,1,   1,   2,   1,1.02405834, -13.636262, 1.10000, 0.90000, 1.10000, 0.90000
   44,'JENKINSVIL~1', 138.0000,1,   1,   2,   1,1.01833761,  -9.780178, 1.10000, 0.90000, 1.10000, 0.90000
   45,'JENKINSVIL~2', 138.0000,1,   1,   2,   1,1.01830423,  -9.784337, 1.10000, 0.90000, 1.10000, 0.90000
   46,'WOODRUFF 0  ', 138.0000,1,   1,   1,   1,1.00415444, -13.176609, 1.10000, 0.90000, 1.10000, 0.90000
   47,'WOODRUFF 1  ', 138.0000,1,   1,   1,   1,1.00349450, -13.257903, 1.10000, 0.90000, 1.10000, 0.90000
   48,'IVA 0       ', 138.0000,1,   1,   1,   1,1.00094306, -17.763770, 1.10000, 0.90000, 1.10000, 0.90000
   49,'IVA 1       ',  13.8000,2,   1,   1,   1,1.00279200, -17.561683, 1.10000, 0.90000, 1.10000, 0.90000
   50,'IVA 2       ',  13.8000,2,   1,   1,   1,1.00309539, -17.526040, 1.10000, 0.90000, 1.10000, 0.90000
   51,'IVA 3       ', 138.0000,1,   1,   1,   1,1.00093722, -17.764479, 1.10000, 0.90000, 1.10000, 0.90000
   52,'IVA 4       ', 138.0000,1,   1,   1,   1,1.00058949, -17.806278, 1.10000, 0.90000, 1.10000, 0.90000
   53,'CAYCE 0     ', 138.0000,1,   1,   2,   1,1.01652920, -13.251455, 1.10000, 0.90000, 1.10000, 0.90000
   54,'CAYCE 1     ', 138.0000,1,   1,   2,   1,1.01601589, -13.307067, 1.10000, 0.90000, 1.10000, 0.90000
   55,'TROY 0      ', 138.0000,1,   1,   1,   1,1.01912940, -13.193049, 1.10000, 0.90000, 1.10000, 0.90000
   56,'TROY 1      ', 138.0000,1,   1,   1,   1,1.01909578, -13.196950, 1.10000, 0.90000, 1.10000, 0.90000
   57,'SIMPSONVIL~3', 345.0000,1,   1,   1,   1,1.01023006,  -9.631096, 1.10000, 0.90000, 1.10000, 0.90000
   58,'SIMPSONVIL~4', 138.0000,1,   1,   1,   1,1.00197041, -12.450890, 1.10000, 0.90000, 1.10000, 0.90000
   59,'SIMPSONVIL~5', 138.0000,1,   1,   1,   1,0.99963534, -12.747820, 1.10000, 0.90000, 1.10000, 0.90000
   60,'MAYO 0      ', 138.0000,1,   1,   1,   1,1.01954579,  -9.574277, 1.10000, 0.90000, 1.10000, 0.90000
   61,'MAYO 1      ', 138.0000,1,   1,   1,   1,1.01954293,  -9.574657, 1.10000, 0.90000, 1.10000, 0.90000
   62,'BELTON 2 0  ', 138.0000,1,   1,   1,   1,1.00980389, -11.911950, 1.10000, 0.90000, 1.10000, 0.90000
   63,'BELTON 2 1  ',  13.8000,2,   1,   1,   1,1.00980389, -11.911950, 1.10000, 0.90000, 1.10000, 0.90000
   64,'BELTON 2 2  ', 138.0000,1,   1,   1,   1,1.00927472, -11.972508, 1.10000, 0.90000, 1.10000, 0.90000
   65,'BRADLEY 0   ', 345.0000,1,   1,   1,   1,1.02539837, -10.657074, 1.10000, 0.90000, 1.10000, 0.90000
   66,'BRADLEY 1   ', 138.0000,1,   1,   1,   1,1.02130461, -12.355135, 1.10000, 0.90000, 1.10000, 0.90000
   67,'BRADLEY 2   ', 138.0000,1,   1,   1,   1,1.02123499, -12.363122, 1.10000, 0.90000, 1.10000, 0.90000
   68,'ENOREE 0    ', 138.0000,1,   1,   1,   1,1.00954533, -13.559490, 1.10000, 0.90000, 1.10000, 0.90000
   69,'ENOREE 1    ', 138.0000,1,   1,   1,   1,1.00925362, -13.595925, 1.10000, 0.90000, 1.10000, 0.90000
   70,'HONEA PATH~2', 138.0000,1,   1,   1,   1,0.99520034, -14.853739, 1.10000, 0.90000, 1.10000, 0.90000
   71,'HONEA PATH~3',  13.8000,2,   1,   1,   1,0.99592978, -14.751248, 1.10000, 0.90000, 1.10000, 0.90000
   72,'HONEA PATH~4',  13.8000,2,   1,   1,   1,0.99637091, -14.687687, 1.10000, 0.90000, 1.10000, 0.90000
   73,'HONEA PATH~5',  13.8000,2,   1,   1,   1,0.99684393, -14.636920, 1.10000, 0.90000, 1.10000, 0.90000
   74,'SPRINGFIEL~1', 138.0000,1,   1,   2,   1,1.02503335, -16.893698, 1.10000, 0.90000, 1.10000, 0.90000
   75,'SPRINGFIEL~2', 138.0000,1,   1,   2,   1,1.02495706, -16.902900, 1.10000, 0.90000, 1.10000, 0.90000
   76,'EDGEMOOR 0  ', 138.0000,1,   1,   1,   1,1.01779497,  -0.028885, 1.10000, 0.90000, 1.10000, 0.90000
   77,'EDGEMOOR 1  ', 138.0000,1,   1,   1,   1,1.01768720,  -0.040910, 1.10000, 0.90000, 1.10000, 0.90000
   78,'NEWRY 0     ', 138.0000,1,   1,   1,   1,1.01264572,  -8.449181, 1.10000, 0.90000, 1.10000, 0.90000
   79,'NEWRY 1     ', 138.0000,1,   1,   1,   1,1.01264012,  -8.449844, 1.10000, 0.90000, 1.10000, 0.90000
   80,'CLARKS HIL~1', 345.0000,1,   1,   2,   1,1.03187656, -10.203590, 1.10000, 0.90000, 1.10000, 0.90000
   81,'CLARKS HIL~2', 138.0000,1,   1,   2,   1,1.02619755, -12.787872, 1.10000, 0.90000, 1.10000, 0.90000
   82,'CLARKS HIL~3',  13.8000,2,   1,   2,   1,1.03999996,  -4.187069, 1.10000, 0.90000, 1.10000, 0.90000
   83,'NEWBERRY 0  ', 138.0000,1,   1,   2,   1,1.00428426, -15.618602, 1.10000, 0.90000, 1.10000, 0.90000
   84,'NEWBERRY 1  ', 138.0000,1,   1,   2,   1,1.00329518, -15.740301, 1.10000, 0.90000, 1.10000, 0.90000
   85,'AIKEN 3 0   ', 138.0000,1,   1,   2,   1,1.02614713, -15.871977, 1.10000, 0.90000, 1.10000, 0.90000
   86,'AIKEN 3 1   ', 138.0000,1,   1,   2,   1,1.02585661, -15.907664, 1.10000, 0.90000, 1.10000, 0.90000
   87,'ROCK HILL ~5', 138.0000,1,   1,   1,   1,1.00101626,   0.765842, 1.10000, 0.90000, 1.10000, 0.90000
   88,'ROCK HILL ~6', 138.0000,1,   1,   1,   1,1.00093365,   0.755621, 1.10000, 0.90000, 1.10000, 0.90000
   89,'CAMERON 0   ', 138.0000,1,   1,   2,   1,1.01780367, -11.128250, 1.10000, 0.90000, 1.10000, 0.90000
   90,'CAMERON 1   ', 138.0000,1,   1,   2,   1,1.01771188, -11.140380, 1.10000, 0.90000, 1.10000, 0.90000
   91,'SENECA 2 0  ', 138.0000,1,   1,   1,   1,1.01175439,  -7.578928, 1.10000, 0.90000, 1.10000, 0.90000
   92,'SENECA 2 1  ', 138.0000,1,   1,   1,   1,1.01076365,  -7.705162, 1.10000, 0.90000, 1.10000, 0.90000
   93,'BLAIR 0     ', 138.0000,1,   1,   2,   1,1.01539218,  -6.433699, 1.10000, 0.90000, 1.10000, 0.90000
   94,'BLAIR 1     ', 138.0000,1,   1,   2,   1,1.01531971,  -6.442794, 1.10000, 0.90000, 1.10000, 0.90000
   95,'WALHALLA 0  ', 138.0000,1,   1,   1,   1,1.01217425,  -7.546726, 1.10000, 0.90000, 1.10000, 0.90000
   96,'WALHALLA 1  ', 138.0000,1,   1,   1,   1,1.01169300,  -7.605762, 1.10000, 0.90000, 1.10000, 0.90000
   97,'ANDERSON 4 0', 138.0000,1,   1,   1,   1,1.00465143, -18.177695, 1.10000, 0.90000, 1.10000, 0.90000
   98,'ANDERSON 4 1', 138.0000,1,   1,   1,   1,1.00404763, -18.258479, 1.10000, 0.90000, 1.10000, 0.90000
   99,'PACOLET 0   ', 138.0000,1,   1,   1,   1,1.02219307,  -9.163343, 1.10000, 0.90000, 1.10000, 0.90000
  100,'PACOLET 1   ', 138.0000,1,   1,   1,   1,1.02198005,  -9.188916, 1.10000, 0.90000, 1.10000, 0.90000
  101,'PACOLET 2   ', 138.0000,1,   1,   1,   1,1.02217937,  -9.164861, 1.10000, 0.90000, 1.10000, 0.90000
  102,'ABBEVILLE 0 ', 138.0000,1,   1,   1,   1,1.00293636, -16.615940, 1.10000, 0.90000, 1.10000, 0.90000
  103,'ABBEVILLE 1 ', 138.0000,1,   1,   1,   1,1.00229776, -16.697996, 1.10000, 0.90000, 1.10000, 0.90000
  104,'AIKEN 2 0   ', 138.0000,1,   1,   2,   1,1.01840258, -17.457678, 1.10000, 0.90000, 1.10000, 0.90000
  105,'AIKEN 2 1   ', 138.0000,1,   1,   2,   1,1.01707745, -17.616391, 1.10000, 0.90000, 1.10000, 0.90000
  106,'JOHNSTON 0  ', 138.0000,1,   1,   2,   1,1.02027261, -14.781528, 1.10000, 0.90000, 1.10000, 0.90000
  107,'JOHNSTON 1  ', 138.0000,1,   1,   2,   1,1.02004826, -14.808429, 1.10000, 0.90000, 1.10000, 0.90000
  108,'SPARTANBU~14', 138.0000,1,   1,   1,   1,1.01513171, -10.097752, 1.10000, 0.90000, 1.10000, 0.90000
  109,'SPARTANBU~15', 138.0000,1,   1,   1,   1,1.01444578, -10.172782, 1.10000, 0.90000, 1.10000, 0.90000
  110,'GAFFNEY 2 0 ', 138.0000,1,   1,   1,   1,1.02723825,  -4.906973, 1.10000, 0.90000, 1.10000, 0.90000
  111,'GAFFNEY 2 1 ', 138.0000,1,   1,   1,   1,1.02631605,  -5.027748, 1.10000, 0.90000, 1.10000, 0.90000
  112,'LEESVILLE 0 ', 138.0000,1,   1,   2,   1,1.01408029, -13.767323, 1.10000, 0.90000, 1.10000, 0.90000
  113,'LEESVILLE 1 ', 138.0000,1,   1,   2,   1,1.01340950, -13.842899, 1.10000, 0.90000, 1.10000, 0.90000
  114,'LANGLEY 0   ', 138.0000,1,   1,   2,   1,1.01914859, -16.294584, 1.10000, 0.90000, 1.10000, 0.90000
  115,'LANGLEY 1   ', 138.0000,1,   1,   2,   1,1.01907897, -16.303590, 1.10000, 0.90000, 1.10000, 0.90000
  116,'LANGLEY 2   ', 138.0000,1,   1,   2,   1,1.01910555, -16.300185, 1.10000, 0.90000, 1.10000, 0.90000
  117,'DONALDS 0   ', 138.0000,1,   1,   1,   1,1.00451136, -13.926792, 1.10000, 0.90000, 1.10000, 0.90000
  118,'DONALDS 1   ', 138.0000,1,   1,   1,   1,1.00436532, -13.945260, 1.10000, 0.90000, 1.10000, 0.90000
  119,'GREENVILL~17', 138.0000,1,   1,   1,   1,0.98709458, -15.396824, 1.10000, 0.90000, 1.10000, 0.90000
  120,'GREENVILL~18', 138.0000,1,   1,   1,   1,0.98665404, -15.451020, 1.10000, 0.90000, 1.10000, 0.90000
  121,'COLUMBIA 9 0', 138.0000,1,   1,   2,   1,1.01290464, -13.971263, 1.10000, 0.90000, 1.10000, 0.90000
  122,'COLUMBIA 9 1', 138.0000,1,   1,   2,   1,1.01206934, -14.081572, 1.10000, 0.90000, 1.10000, 0.90000
  123,'SALEM 3 0   ', 345.0000,1,   1,   1,   1,1.03008425,  -3.755483, 1.10000, 0.90000, 1.10000, 0.90000
  124,'SALEM 3 1   ', 138.0000,1,   1,   1,   1,1.02764618,  -4.458626, 1.10000, 0.90000, 1.10000, 0.90000
  125,'SALEM 3 2   ',  13.8000,2,   1,   1,   1,1.03008425,  -3.755483, 1.10000, 0.90000, 1.10000, 0.90000
  126,'SALEM 3 3   ',  13.8000,2,   1,   1,   1,1.03008425,  -3.755483, 1.10000, 0.90000, 1.10000, 0.90000
  127,'SALEM 3 4   ',  13.8000,2,   1,   1,   1,1.03999996,   0.394755, 1.10000, 0.90000, 1.10000, 0.90000
  128,'SALEM 3 5   ',  13.8000,2,   1,   1,   1,1.03952491,  -2.386765, 1.10000, 0.90000, 1.10000, 0.90000
  129,'GREENVILL~15', 138.0000,1,   1,   1,   1,0.98420179, -15.914607, 1.10000, 0.90000, 1.10000, 0.90000
  130,'GREENVILL~16', 138.0000,1,   1,   1,   1,0.98256069, -16.100250, 1.10000, 0.90000, 1.10000, 0.90000
  131,'COWPENS 0   ', 138.0000,1,   1,   1,   1,1.02025878,  -9.445350, 1.10000, 0.90000, 1.10000, 0.90000
  132,'COWPENS 1   ', 138.0000,1,   1,   1,   1,1.01985383,  -9.493030, 1.10000, 0.90000, 1.10000, 0.90000
  133,'WESTMINSTE~3', 138.0000,1,   1,   1,   1,1.01290476,  -7.505510, 1.10000, 0.90000, 1.10000, 0.90000
  134,'WESTMINSTE~4', 138.0000,1,   1,   1,   1,1.01234078,  -7.575692, 1.10000, 0.90000, 1.10000, 0.90000
  135,'SAINT MATT~1', 138.0000,1,   1,   2,   1,1.01526773, -11.328869, 1.10000, 0.90000, 1.10000, 0.90000
  136,'SAINT MATT~2', 138.0000,1,   1,   2,   1,1.01486528, -11.381154, 1.10000, 0.90000, 1.10000, 0.90000
  137,'GREENWOOD ~3', 138.0000,1,   1,   1,   1,1.00681937, -14.045005, 1.10000, 0.90000, 1.10000, 0.90000
  138,'GREENWOOD ~4', 138.0000,1,   1,   1,   1,1.00558984, -14.207124, 1.10000, 0.90000, 1.10000, 0.90000
  139,'FINGERVILL~1', 138.0000,1,   1,   1,   1,1.01583207, -10.108334, 1.10000, 0.90000, 1.10000, 0.90000
  140,'FINGERVILL~2', 138.0000,1,   1,   1,   1,1.01582837, -10.108762, 1.10000, 0.90000, 1.10000, 0.90000
  141,'ROCK HILL ~3', 138.0000,1,   1,   1,   1,1.00058186,  -2.499145, 1.10000, 0.90000, 1.10000, 0.90000
  142,'ROCK HILL ~4', 138.0000,1,   1,   1,   1,0.99798501,  -2.798498, 1.10000, 0.90000, 1.10000, 0.90000
  143,'YORK 2 0    ', 138.0000,1,   1,   1,   1,1.01877677,   6.502360, 1.10000, 0.90000, 1.10000, 0.90000
  144,'YORK 2 1    ',  13.8000,2,   1,   1,   1,1.03999996,  19.035857, 1.10000, 0.90000, 1.10000, 0.90000
  145,'YORK 2 2    ',  13.8000,2,   1,   1,   1,1.03999996,   9.200971, 1.10000, 0.90000, 1.10000, 0.90000
  146,'CHAPIN 0    ', 345.0000,1,   1,   2,   1,1.02879047,  -7.881097, 1.10000, 0.90000, 1.10000, 0.90000
  147,'CHAPIN 1    ', 138.0000,1,   1,   2,   1,1.01711750,  -8.557608, 1.10000, 0.90000, 1.10000, 0.90000
  148,'CHAPIN 2    ', 138.0000,1,   1,   2,   1,1.01618731,  -8.677832, 1.10000, 0.90000, 1.10000, 0.90000
  149,'MODOC 0     ', 138.0000,1,   1,   2,   1,1.02206659, -13.723278, 1.10000, 0.90000, 1.10000, 0.90000
  150,'MODOC 1     ', 138.0000,1,   1,   2,   1,1.02204216, -13.726174, 1.10000, 0.90000, 1.10000, 0.90000
  151,'SPARTANBU~11', 345.0000,1,   1,   1,   1,1.02818632,  -8.035489, 1.10000, 0.90000, 1.10000, 0.90000
  152,'SPARTANBU~12', 138.0000,1,   1,   1,   1,1.02736104, -10.434389, 1.10000, 0.90000, 1.10000, 0.90000
  153,'SPARTANBU~13', 138.0000,1,   1,   1,   1,1.02612340, -10.584818, 1.10000, 0.90000, 1.10000, 0.90000
  154,'BOILING SP~1', 138.0000,1,   1,   1,   1,1.01022661, -10.979579, 1.10000, 0.90000, 1.10000, 0.90000
  155,'BOILING SP~2', 138.0000,1,   1,   1,   1,1.00934136, -11.087115, 1.10000, 0.90000, 1.10000, 0.90000
  156,'GREENVILL~13', 138.0000,1,   1,   1,   1,0.98944414, -14.616820, 1.10000, 0.90000, 1.10000, 0.90000
  157,'GREENVILL~14', 138.0000,1,   1,   1,   1,0.98778075, -14.828219, 1.10000, 0.90000, 1.10000, 0.90000
  158,'PELION 0    ', 138.0000,1,   1,   2,   1,1.01084769, -13.532131, 1.10000, 0.90000, 1.10000, 0.90000
  159,'PELION 1    ', 138.0000,1,   1,   2,   1,1.01047790, -13.579723, 1.10000, 0.90000, 1.10000, 0.90000
  160,'GRANITEVIL~1', 138.0000,1,   1,   2,   1,1.01984894, -15.042923, 1.10000, 0.90000, 1.10000, 0.90000
  161,'GRANITEVIL~2', 138.0000,1,   1,   2,   1,1.01946497, -15.091831, 1.10000, 0.90000, 1.10000, 0.90000
  162,'IRMO 0      ', 345.0000,1,   1,   2,   1,1.02907991,  -7.842996, 1.10000, 0.90000, 1.10000, 0.90000
  163,'IRMO 1      ', 138.0000,1,   1,   2,   1,1.02519882,  -8.622978, 1.10000, 0.90000, 1.10000, 0.90000
  164,'IRMO 2      ', 138.0000,1,   1,   2,   1,1.02354944,  -8.827381, 1.10000, 0.90000, 1.10000, 0.90000
  165,'SALEM 2 0   ', 345.0000,1,   1,   1,   1,1.03038764,  -3.402552, 1.10000, 0.90000, 1.10000, 0.90000
  166,'SALEM 2 1   ', 138.0000,1,   1,   1,   1,1.02458405,  -4.970343, 1.10000, 0.90000, 1.10000, 0.90000
  167,'SALEM 2 2   ',  13.8000,2,   1,   1,   1,1.03999996,  -1.181749, 1.10000, 0.90000, 1.10000, 0.90000
  168,'SALEM 2 3   ',  13.8000,2,   1,   1,   1,1.03999996,   0.266644, 1.10000, 0.90000, 1.10000, 0.90000
  169,'SALEM 2 4   ',  13.8000,2,   1,   1,   1,1.03999996,   1.888281, 1.10000, 0.90000, 1.10000, 0.90000
  170,'WEST UNION 0', 138.0000,1,   1,   1,   1,1.01169062,  -7.684683, 1.10000, 0.90000, 1.10000, 0.90000
  171,'WEST UNION 1', 138.0000,1,   1,   1,   1,1.01150477,  -7.709885, 1.10000, 0.90000, 1.10000, 0.90000
  172,'CROSS HILL 0', 138.0000,1,   1,   1,   1,1.00497818, -12.799090, 1.10000, 0.90000, 1.10000, 0.90000
  173,'CROSS HILL 1', 138.0000,1,   1,   1,   1,1.00493097, -12.804343, 1.10000, 0.90000, 1.10000, 0.90000
  174,'CROSS HILL 2', 138.0000,1,   1,   1,   1,1.00487661, -12.811037, 1.10000, 0.90000, 1.10000, 0.90000
  175,'FORT LAWN 0 ', 345.0000,1,   1,   1,   1,1.03393531,  -3.550348, 1.10000, 0.90000, 1.10000, 0.90000
  176,'FORT LAWN 1 ', 138.0000,1,   1,   1,   1,1.02304757,  -2.722604, 1.10000, 0.90000, 1.10000, 0.90000
  177,'FORT LAWN 2 ', 138.0000,1,   1,   1,   1,1.02291620,  -2.739433, 1.10000, 0.90000, 1.10000, 0.90000
  178,'FORT LAWN 3 ', 138.0000,1,   1,   1,   1,1.02294588,  -2.733694, 1.10000, 0.90000, 1.10000, 0.90000
  179,'NORTH 0     ', 138.0000,1,   1,   2,   1,1.00424826, -14.756946, 1.10000, 0.90000, 1.10000, 0.90000
  180,'NORTH 1     ', 138.0000,1,   1,   2,   1,1.00402653, -14.781986, 1.10000, 0.90000, 1.10000, 0.90000
  181,'ANDERSON 3 0', 138.0000,1,   1,   1,   1,1.01121485, -17.974970, 1.10000, 0.90000, 1.10000, 0.90000
  182,'ANDERSON 3 1', 138.0000,1,   1,   1,   1,1.00988400, -18.139381, 1.10000, 0.90000, 1.10000, 0.90000
  183,'BLACKSBURG~6', 138.0000,1,   1,   1,   1,1.02483606,  -6.661881, 1.10000, 0.90000, 1.10000, 0.90000
  184,'BLACKSBURG~7', 138.0000,1,   1,   1,   1,1.02443981,  -6.709043, 1.10000, 0.90000, 1.10000, 0.90000
  185,'LIBERTY 0   ', 138.0000,1,   1,   1,   1,1.00954199,  -9.259349, 1.10000, 0.90000, 1.10000, 0.90000
  186,'LIBERTY 1   ', 138.0000,1,   1,   1,   1,1.00892115,  -9.333731, 1.10000, 0.90000, 1.10000, 0.90000
  187,'ELLOREE 0   ', 138.0000,1,   1,   2,   1,1.01710451, -11.513979, 1.10000, 0.90000, 1.10000, 0.90000
  188,'ELLOREE 1   ', 138.0000,1,   1,   2,   1,1.01694059, -11.532133, 1.10000, 0.90000, 1.10000, 0.90000
  189,'WAGENER 0   ', 138.0000,1,   1,   2,   1,1.02781987, -17.179459, 1.10000, 0.90000, 1.10000, 0.90000
  190,'WAGENER 1   ', 138.0000,1,   1,   2,   1,1.02761543, -17.201031, 1.10000, 0.90000, 1.10000, 0.90000
  191,'TRENTON 0   ', 138.0000,1,   1,   2,   1,1.01962650, -15.768651, 1.10000, 0.90000, 1.10000, 0.90000
  192,'TRENTON 1   ', 138.0000,1,   1,   2,   1,1.01935422, -15.801108, 1.10000, 0.90000, 1.10000, 0.90000
  193,'BATESBURG 0 ', 138.0000,1,   1,   2,   1,1.01530218, -14.252592, 1.10000, 0.90000, 1.10000, 0.90000
  194,'BATESBURG 1 ', 138.0000,1,   1,   2,   1,1.01481831, -14.310302, 1.10000, 0.90000, 1.10000, 0.90000
  195,'COLUMBIA 8 0', 345.0000,1,   1,   2,   1,1.02908194,  -7.870717, 1.10000, 0.90000, 1.10000, 0.90000
  196,'COLUMBIA 8 1', 138.0000,1,   1,   2,   1,1.01969564, -10.123891, 1.10000, 0.90000, 1.10000, 0.90000
  197,'COLUMBIA 8 2',  13.8000,2,   1,   2,   1,1.03999996,  -3.003092, 1.10000, 0.90000, 1.10000, 0.90000
  198,'COLUMBIA 8 3',  13.8000,2,   1,   2,   1,1.03999996,  -5.456008, 1.10000, 0.90000, 1.10000, 0.90000
  199,'COLUMBIA 8 4', 138.0000,1,   1,   2,   1,1.01835477, -10.272974, 1.10000, 0.90000, 1.10000, 0.90000
  200,'LITTLE MOU~1', 138.0000,1,   1,   2,   1,1.02069652,  -9.381187, 1.10000, 0.90000, 1.10000, 0.90000
...
0 / END OF BUS DATA, BEGIN LOAD DATA
    2,'1 ',1,   1,   2,    42.801,    11.414,     0.000,     0.000,     0.000,     0.000,   1,1
    4,'1 ',1,   1,   2,   132.687,    35.383,     0.000,     0.000,     0.000,     0.000,   1,1
    6,'1 ',1,   1,   1,     3.213,     0.857,     0.000,     0.000,     0.000,     0.000,   1,1
   11,'1 ',1,   1,   2,     2.472,     0.659,     0.000,     0.000,     0.000,     0.000,   1,1
   13,'1 ',1,   1,   1,    37.161,     9.910,     0.000,     0.000,     0.000,     0.000,   1,1
   20,'1 ',1,   1,   2,     4.542,     1.211,     0.000,     0.000,     0.000,     0.000,   1,1
   22,'1 ',1,   1,   2,   148.698,    39.653,     0.000,     0.000,     0.000,     0.000,   1,1
   25,'1 ',1,   1,   1,     2.283,     0.609,     0.000,     0.000,     0.000,     0.000,   1,1
   26,'1 ',1,   1,   1,    21.663,     5.777,     0.000,     0.000,     0.000,     0.000,   1,1
   28,'1 ',1,   1,   1,    62.931,    16.782,     0.000,     0.000,     0.000,     0.000,   1,1
   30,'1 ',1,   1,   2,    99.972,    26.659,     0.000,     0.000,     0.000,     0.000,   1,1
   32,'1 ',1,   1,   2,     9.765,     2.604,     0.000,     0.000,     0.000,     0.000,   1,1
   34,'1 ',1,   1,   2,    24.999,     6.666,     0.000,     0.000,     0.000,     0.000,   1,1
   36,'1 ',1,   1,   2,    43.350,    11.560,     0.000,     0.000,     0.000,     0.000,   1,1
   38,'1 ',1,   1,   1,     0.129,     0.034,     0.000,     0.000,     0.000,     0.000,   1,1
   41,'1 ',1,   1,   1,    57.990,    15.464,     0.000,     0.000,     0.000,     0.000,   1,1
   43,'1 ',1,   1,   2,     4.461,     1.190,     0.000,     0.000,     0.000,     0.000,   1,1
   45,'1 ',1,   1,   2,     2.031,     0.542,     0.000,     0.000,     0.000,     0.000,   1,1
   47,'1 ',1,   1,   1,    43.410,    11.576,     0.000,     0.000,     0.000,     0.000,   1,1
   51,'1 ',1,   1,   1,     0.354,     0.094,     0.000,     0.000,     0.000,     0.000,   1,1
   52,'1 ',1,   1,   1,    23.388,     6.237,     0.000,     0.000,     0.000,     0.000,   1,1
   54,'1 ',1,   1,   2,    34.809,     9.282,     0.000,     0.000,     0.000,     0.000,   1,1
   56,'1 ',1,   1,   1,     2.253,     0.601,     0.000,     0.000,     0.000,     0.000,   1,1
   59,'1 ',1,   1,   1,   140.937,    37.583,     0.000,     0.000,     0.000,     0.000,   1,1
   61,'1 ',1,   1,   1,     0.204,     0.054,     0.000,     0.000,     0.000,     0.000,   1,1
   64,'1 ',1,   1,   1,    34.776,     9.274,     0.000,     0.000,     0.000,     0.000,   1,1
   67,'1 ',1,   1,   1,     4.569,     1.218,     0.000,     0.000,     0.000,     0.000,   1,1
   69,'1 ',1,   1,   1,    16.962,     4.523,     0.000,     0.000,     0.000,     0.000,   1,1
   75,'1 ',1,   1,   2,     5.301,     1.414,     0.000,     0.000,     0.000,     0.000,   1,1
   77,'1 ',1,   1,   1,     6.951,     1.854,     0.000,     0.000,     0.000,     0.000,   1,1
   79,'1 ',1,   1,   1,     0.381,     0.102,     0.000,     0.000,     0.000,     0.000,   1,1
   84,'1 ',1,   1,   2,    61.407,    16.375,     0.000,     0.000,     0.000,     0.000,   1,1
   86,'1 ',1,   1,   2,    17.592,     4.691,     0.000,     0.000,     0.000,     0.000,   1,1
   88,'1 ',1,   1,   1,     5.253,     1.401,     0.000,     0.000,     0.000,     0.000,   1,1
   90,'1 ',1,   1,   2,     5.901,     1.574,     0.000,     0.000,     0.000,     0.000,   1,1
   92,'1 ',1,   1,   1,    65.028,    17.341,     0.000,     0.000,     0.000,     0.000,   1,1
   94,'1 ',1,   1,   2,     5.214,     1.390,     0.000,     0.000,     0.000,     0.000,   1,1
   96,'1 ',1,   1,   1,    33.999,     9.066,     0.000,     0.000,     0.000,     0.000,   1,1
   98,'1 ',1,   1,   1,    37.092,     9.891,     0.000,     0.000,     0.000,     0.000,   1,1
  100,'1 ',1,   1,   1,    13.521,     3.606,     0.000,     0.000,     0.000,     0.000,   1,1
  101,'1 ',1,   1,   1,     0.891,     0.238,     0.000,     0.000,     0.000,     0.000,   1,1
  103,'1 ',1,   1,   1,    38.802,    10.347,     0.000,     0.000,     0.000,     0.000,   1,1
  105,'1 ',1,   1,   2,    80.334,    21.422,     0.000,     0.000,     0.000,     0.000,   1,1
  107,'1 ',1,   1,   2,    16.005,     4.268,     0.000,     0.000,     0.000,     0.000,   1,1
  109,'1 ',1,   1,   1,    47.583,    12.689,     0.000,     0.000,     0.000,     0.000,   1,1
  111,'1 ',1,   1,   1,    62.289,    16.610,     0.000,     0.000,     0.000,     0.000,   1,1
  113,'1 ',1,   1,   2,    45.990,    12.264,     0.000,     0.000,     0.000,     0.000,   1,1
  115,'1 ',1,   1,   2,     5.061,     1.350,     0.000,     0.000,     0.000,     0.000,   1,1
  116,'1 ',1,   1,   2,     3.099,     0.826,     0.000,     0.000,     0.000,     0.000,   1,1
  118,'1 ',1,   1,   1,     8.832,     2.355,     0.000,     0.000,     0.000,     0.000,   1,1
  120,'1 ',1,   1,   1,    31.650,     8.440,     0.000,     0.000,     0.000,     0.000,   1,1
  122,'1 ',1,   1,   2,    53.364,    14.230,     0.000,     0.000,     0.000,     0.000,   1,1
  130,'1 ',1,   1,   1,   103.242,    27.531,     0.000,     0.000,     0.000,     0.000,   1,1
  132,'1 ',1,   1,   1,    25.203,     6.721,     0.000,     0.000,     0.000,     0.000,   1,1
  134,'1 ',1,   1,   1,    42.645,    11.372,     0.000,     0.000,     0.000,     0.000,   1,1
  136,'1 ',1,   1,   2,    26.757,     7.135,     0.000,     0.000,     0.000,     0.000,   1,1
  138,'1 ',1,   1,   1,    78.705,    20.988,     0.000,     0.000,     0.000,     0.000,   1,1
  140,'1 ',1,   1,   1,     0.255,     0.068,     0.000,     0.000,     0.000,     0.000,   1,1
  142,'1 ',1,   1,   1,   161.343,    43.025,     0.000,     0.000,     0.000,     0.000,   1,1
  148,'1 ',1,   1,   2,    57.420,    15.312,     0.000,     0.000,     0.000,     0.000,   1,1
  150,'1 ',1,   1,   2,     1.503,     0.401,     0.000,     0.000,     0.000,     0.000,   1,1
  153,'1 ',1,   1,   1,    93.153,    24.841,     0.000,     0.000,     0.000,     0.000,   1,1
  155,'1 ',1,   1,   1,    66.843,    17.825,     0.000,     0.000,     0.000,     0.000,   1,1
  157,'1 ',1,   1,   1,   105.453,    28.121,     0.000,     0.000,     0.000,     0.000,   1,1
  159,'1 ',1,   1,   2,    22.851,     6.094,     0.000,     0.000,     0.000,     0.000,   1,1
  161,'1 ',1,   1,   2,    25.953,     6.921,     0.000,     0.000,     0.000,     0.000,   1,1
  164,'1 ',1,   1,   2,    98.151,    26.174,     0.000,     0.000,     0.000,     0.000,   1,1
  171,'1 ',1,   1,   1,    12.375,     3.300,     0.000,     0.000,     0.000,     0.000,   1,1
  173,'1 ',1,   1,   1,     3.135,     0.836,     0.000,     0.000,     0.000,     0.000,   1,1
  174,'1 ',1,   1,   1,     7.305,     1.948,     0.000,     0.000,     0.000,     0.000,   1,1
  177,'1 ',1,   1,   1,     8.781,     2.342,     0.000,     0.000,     0.000,     0.000,   1,1
  178,'1 ',1,   1,   1,     6.813,     1.817,     0.000,     0.000,     0.000,     0.000,   1,1
  180,'1 ',1,   1,   2,    14.136,     3.770,     0.000,     0.000,     0.000,     0.000,   1,1
  182,'1 ',1,   1,   1,    82.614,    22.030,     0.000,     0.000,     0.000,     0.000,   1,1
  184,'1 ',1,   1,   1,    30.177,     8.047,     0.000,     0.000,     0.000,     0.000,   1,1
  186,'1 ',1,   1,   1,    45.348,    12.093,     0.000,     0.000,     0.000,     0.000,   1,1
  188,'1 ',1,   1,   2,    11.049,     2.946,     0.000,     0.000,     0.000,     0.000,   1,1
  190,'1 ',1,   1,   2,    14.070,     3.752,     0.000,     0.000,     0.000,     0.000,   1,1
  192,'1 ',1,   1,   2,    16.440,     4.384,     0.000,     0.000,     0.000,     0.000,   1,1
  194,'1 ',1,   1,   2,    28.695,     7.652,     0.000,     0.000,     0.000,     0.000,   1,1
  199,'1 ',1,   1,   2,    86.394,    23.038,     0.000,     0.000,     0.000,     0.000,   1,1
  201,'1 ',1,   1,   2,     8.889,     2.370,     0.000,     0.000,     0.000,     0.000,   1,1
  203,'1 ',1,   1,   1,     4.689,     1.250,     0.000,     0.000,     0.000,     0.000,   1,1
  204,'1 ',1,   1,   1,    45.666,    12.178,     0.000,     0.000,     0.000,     0.000,   1,1
  206,'1 ',1,   1,   2,     3.009,     0.802,     0.000,     0.000,     0.000,     0.000,   1,1
  207,'1 ',1,   1,   2,    22.572,     6.019,     0.000,     0.000,     0.000,     0.000,   1,1
  209,'1 ',1,   1,   1,    81.855,    21.828,     0.000,     0.000,     0.000,     0.000,   1,1
  211,'1 ',1,   1,   1,    34.278,     9.141,     0.000,     0.000,     0.000,     0.000,   1,1
  213,'1 ',1,   1,   2,    97.482,    25.995,     0.000,     0.000,     0.000,     0.000,   1,1
  215,'1 ',1,   1,   1,    84.477,    22.527,     0.000,     0.000,     0.000,     0.000,   1,1
  217,'1 ',1,   1,   1,    55.101,    14.694,     0.000,     0.000,     0.000,     0.000,   1,1
  219,'1 ',1,   1,   2,     0.333,     0.089,     0.000,     0.000,     0.000,     0.000,   1,1
  227,'1 ',1,   1,   1,     5.424,     1.446,     0.000,     0.000,     0.000,     0.000,   1,1
  229,'1 ',1,   1,   1,    54.090,    14.424,     0.000,     0.000,     0.000,     0.000,   1,1
  234,'1 ',1,   1,   2,    59.964,    15.990,     0.000,     0.000,     0.000,     0.000,   1,1
  237,'1 ',1,   1,   2,     2.712,     0.723,     0.000,     0.000,     0.000,     0.000,   1,1
  239,'1 ',1,   1,   1,    39.132,    10.435,     0.000,     0.000,     0.000,     0.000,   1,1
  241,'1 ',1,   1,   2,    19.740,     5.264,     0.000,     0.000,     0.000,     0.000,   1,1
  243,'1 ',1,   1,   2,    74.466,    19.858,     0.000,     0.000,     0.000,     0.000,   1,1
  245,'1 ',1,   1,   1,    11.835,     3.156,     0.000,     0.000,     0.000,     0.000,   1,1
  252,'1 ',1,   1,   1,   118.683,    31.649,     0.000,     0.000,     0.000,     0.000,   1,1
  259,'1 ',1,   1,   1,     8.160,     2.176,     0.000,     0.000,     0.000,     0.000,   1,1
  261,'1 ',1,   1,   1,    18.684,     4.982,     0.000,     0.000,     0.000,     0.000,   1,1
  266,'1 ',1,   1,   2,    61.782,    16.475,     0.000,     0.000,     0.000,     0.000,   1,1
  268,'1 ',1,   1,   2,   117.147,    31.239,     0.000,     0.000,     0.000,     0.000,   1,1
  270,'1 ',1,   1,   2,     6.801,     1.814,     0.000,     0.000,     0.000,     0.000,   1,1
  273,'1 ',1,   1,   2,     9.492,     2.531,     0.000,     0.000,     0.000,     0.000,   1,1
  277,'1 ',1,   1,   2,     0.405,     0.108,     0.000,     0.000,     0.000,     0.000,   1,1
  278,'1 ',1,   1,   2,     5.769,     1.538,     0.000,     0.000,     0.000,     0.000,   1,1
  280,'1 ',1,   1,   1,    16.944,     4.518,     0.000,     0.000,     0.000,     0.000,   1,1
  282,'1 ',1,   1,   1,   117.303,    31.281,     0.000,     0.000,     0.000,     0.000,   1,1
  284,'1 ',1,   1,   2,    32.649,     8.706,     0.000,     0.000,     0.000,     0.000,   1,1
  286,'1 ',1,   1,   1,     8.268,     2.205,     0.000,     0.000,     0.000,     0.000,   1,1
  288,'1 ',1,   1,   2,    58.107,    15.495,     0.000,     0.000,     0.000,     0.000,   1,1
  290,'1 ',1,   1,   1,     3.690,     0.984,     0.000,     0.000,     0.000,     0.000,   1,1
  292,'1 ',1,   1,   2,     7.617,     2.031,     0.000,     0.000,     0.000,     0.000,   1,1
  294,'1 ',1,   1,   2,    25.605,     6.828,     0.000,     0.000,     0.000,     0.000,   1,1
  296,'1 ',1,   1,   1,     7.788,     2.077,     0.000,     0.000,     0.000,     0.000,   1,1
  299,'1 ',1,   1,   1,    14.568,     3.885,     0.000,     0.000,     0.000,     0.000,   1,1
  303,'1 ',1,   1,   1,    86.757,    23.135,     0.000,     0.000,     0.000,     0.000,   1,1
  307,'1 ',1,   1,   1,    76.044,    20.278,     0.000,     0.000,     0.000,     0.000,   1,1
  309,'1 ',1,   1,   1,     9.030,     2.408,     0.000,     0.000,     0.000,     0.000,   1,1
  311,'1 ',1,   1,   1,    43.830,    11.688,     0.000,     0.000,     0.000,     0.000,   1,1
  313,'1 ',1,   1,   2,    12.438,     3.317,     0.000,     0.000,     0.000,     0.000,   1,1
  315,'1 ',1,   1,   1,     0.426,     0.114,     0.000,     0.000,     0.000,     0.000,   1,1
  317,'1 ',1,   1,   1,     3.753,     1.001,     0.000,     0.000,     0.000,     0.000,   1,1
  321,'1 ',1,   1,   2,   150.423,    40.113,     0.000,     0.000,     0.000,     0.000,   1,1
  323,'1 ',1,   1,   1,    45.270,    12.072,     0.000,     0.000,     0.000,     0.000,   1,1
  325,'1 ',1,   1,   1,   103.461,    27.590,     0.000,     0.000,     0.000,     0.000,   1,1
  327,'1 ',1,   1,   2,   121.068,    32.285,     0.000,     0.000,     0.000,     0.000,   1,1
  329,'1 ',1,   1,   1,    26.019,     6.938,     0.000,     0.000,     0.000,     0.000,   1,1
  331,'1 ',1,   1,   1,    57.174,    15.246,     0.000,     0.000,     0.000,     0.000,   1,1
  334,'1 ',1,   1,   1,     0.501,     0.134,     0.000,     0.000,     0.000,     0.000,   1,1
  335,'1 ',1,   1,   1,     0.834,     0.222,     0.000,     0.000,     0.000,     0.000,   1,1
  337,'1 ',1,   1,   1,     5.673,     1.513,     0.000,     0.000,     0.000,     0.000,   1,1
  339,'1 ',1,   1,   1,    75.105,    20.028,     0.000,     0.000,     0.000,     0.000,   1,1
  341,'1 ',1,   1,   1,    24.222,     6.459,     0.000,     0.000,     0.000,     0.000,   1,1
  343,'1 ',1,   1,   2,     2.511,     0.670,     0.000,     0.000,     0.000,     0.000,   1,1
  344,'1 ',1,   1,   2,     2.430,     0.648,     0.000,     0.000,     0.000,     0.000,   1,1
  346,'1 ',1,   1,   2,    47.583,    12.689,     0.000,     0.000,     0.000,     0.000,   1,1
  348,'1 ',1,   1,   1,    86.397,    23.039,     0.000,     0.000,     0.000,     0.000,   1,1
  355,'1 ',1,   1,   2,    19.965,     5.324,     0.000,     0.000,     0.000,     0.000,   1,1
  357,'1 ',1,   1,   1,    55.734,    14.862,     0.000,     0.000,     0.000,     0.000,   1,1
  359,'1 ',1,   1,   1,    14.586,     3.890,     0.000,     0.000,     0.000,     0.000,   1,1
  364,'1 ',1,   1,   1,    30.438,     8.117,     0.000,     0.000,     0.000,     0.000,   1,1
  366,'1 ',1,   1,   2,    56.490,    15.064,     0.000,     0.000,     0.000,     0.000,   1,1
  368,'1 ',1,   1,   1,    11.454,     3.054,     0.000,     0.000,     0.000,     0.000,   1,1
  370,'1 ',1,   1,   1,    35.604,     9.494,     0.000,     0.000,     0.000,     0.000,   1,1
  373,'1 ',1,   1,   2,    28.836,     7.690,     0.000,     0.000,     0.000,     0.000,   1,1
  375,'1 ',1,   1,   2,    24.765,     6.604,     0.000,     0.000,     0.000,     0.000,   1,1
  377,'1 ',1,   1,   1,    90.387,    24.103,     0.000,     0.000,     0.000,     0.000,   1,1
  379,'1 ',1,   1,   1,    13.011,     3.470,     0.000,     0.000,     0.000,     0.000,   1,1
  381,'1 ',1,   1,   1,    10.131,     2.702,     0.000,     0.000,     0.000,     0.000,   1,1
  383,'1 ',1,   1,   1,    29.946,     7.986,     0.000,     0.000,     0.000,     0.000,   1,1
  385,'1 ',1,   1,   1,    36.621,     9.766,     0.000,     0.000,     0.000,     0.000,   1,1
  397,'1 ',1,   1,   1,    39.954,    10.654,     0.000,     0.000,     0.000,     0.000,   1,1
  398,'1 ',1,   1,   1,    16.767,     4.471,     0.000,     0.000,     0.000,     0.000,   1,1
  400,'1 ',1,   1,   2,    23.025,     6.140,     0.000,     0.000,     0.000,     0.000,   1,1
  402,'1 ',1,   1,   1,    88.347,    23.559,     0.000,     0.000,     0.000,     0.000,   1,1
  404,'1 ',1,   1,   1,    19.770,     5.272,     0.000,     0.000,     0.000,     0.000,   1,1
  406,'1 ',1,   1,   1,     5.250,     1.400,     0.000,     0.000,     0.000,     0.000,   1,1
  416,'1 ',1,   1,   2,     6.063,     1.617,     0.000,     0.000,     0.000,     0.000,   1,1
  418,'1 ',1,   1,   1,    63.615,    16.964,     0.000,     0.000,     0.000,     0.000,   1,1
  420,'1 ',1,   1,   1,     5.226,     1.394,     0.000,     0.000,     0.000,     0.000,   1,1
  422,'1 ',1,   1,   2,    49.179,    13.114,     0.000,     0.000,     0.000,     0.000,   1,1
  424,'1 ',1,   1,   1,   157.095,    41.892,     0.000,     0.000,     0.000,     0.000,   1,1
  427,'1 ',1,   1,   1,    14.433,     3.849,     0.000,     0.000,     0.000,     0.000,   1,1
  446,'1 ',1,   1,   1,    88.683,    23.649,     0.000,     0.000,     0.000,     0.000,   1,1
  448,'1 ',1,   1,   1,    57.558,    15.349,     0.000,     0.000,     0.000,     0.000,   1,1
  450,'1 ',1,   1,   1,     1.122,     0.299,     0.000,     0.000,     0.000,     0.000,   1,1
  451,'1 ',1,   1,   1,     2.211,     0.590,     0.000,     0.000,     0.000,     0.000,   1,1
  452,'1 ',1,   1,   1,    11.163,     2.977,     0.000,     0.000,     0.000,     0.000,   1,1
  459,'1 ',1,   1,   1,    74.469,    19.858,     0.000,     0.000,     0.000,     0.000,   1,1
  460,'1 ',1,   1,   1,    26.343,     7.025,     0.000,     0.000,     0.000,     0.000,   1,1
  461,'1 ',1,   1,   1,    91.722,    24.459,     0.000,     0.000,     0.000,     0.000,   1,1
  465,'1 ',1,   1,   1,    12.522,     3.339,     0.000,     0.000,     0.000,     0.000,   1,1
  466,'1 ',1,   1,   1,    43.338,    11.557,     0.000,     0.000,     0.000,     0.000,   1,1
  467,'1 ',1,   1,   1,     0.807,     0.215,     0.000,     0.000,     0.000,     0.000,   1,1
  468,'1 ',1,   1,   1,     3.762,     1.003,     0.000,     0.000,     0.000,     0.000,   1,1
  469,'1 ',1,   1,   1,   128.532,    34.275,     0.000,     0.000,     0.000,     0.000,   1,1
  470,'1 ',1,   1,   1,    42.558,    11.349,     0.000,     0.000,     0.000,     0.000,   1,1
  472,'1 ',1,   1,   1,    49.713,    13.257,     0.000,     0.000,     0.000,     0.000,   1,1
  473,'1 ',1,   1,   1,     0.999,     0.266,     0.000,     0.000,     0.000,     0.000,   1,1
  474,'1 ',1,   1,   1,     7.002,     1.867,     0.000,     0.000,     0.000,     0.000,   1,1
  474,'2 ',1,   1,   1,    77.055,    20.548,     0.000,     0.000,     0.000,     0.000,   1,1
  474,'3 ',1,   1,   1,    83.166,    22.178,     0.000,     0.000,     0.000,     0.000,   1,1
  475,'1 ',1,   1,   2,     0.162,     0.043,     0.000,     0.000,     0.000,     0.000,   1,1
  476,'1 ',1,   1,   2,    59.856,    15.962,     0.000,     0.000,     0.000,     0.000,   1,1
  477,'1 ',1,   1,   1,    10.602,     2.827,     0.000,     0.000,     0.000,     0.000,   1,1
  477,'2 ',1,   1,   1,    20.727,     5.527,     0.000,     0.000,     0.000,     0.000,   1,1
  478,'1 ',1,   1,   1,     1.776,     0.474,     0.000,     0.000,     0.000,     0.000,   1,1
  478,'2 ',1,   1,   1,     7.380,     1.968,     0.000,     0.000,     0.000,     0.000,   1,1
  485,'1 ',1,   1,   2,    27.879,     7.434,     0.000,     0.000,     0.000,     0.000,   1,1
  486,'1 ',1,   1,   2,    68.535,    18.276,     0.000,     0.000,     0.000,     0.000,   1,1
  487,'1 ',1,   1,   1,    11.667,     3.111,     0.000,     0.000,     0.000,     0.000,   1,1
  488,'1 ',1,   1,   1,    97.896,    26.106,     0.000,     0.000,     0.000,     0.000,   1,1
  489,'1 ',1,   1,   2,     0.369,     0.098,     0.000,     0.000,     0.000,     0.000,   1,1
  489,'2 ',1,   1,   2,     3.312,     0.883,     0.000,     0.000,     0.000,     0.000,   1,1
  490,'1 ',1,   1,   1,    29.811,     7.950,     0.000,     0.000,     0.000,     0.000,   1,1
  491,'1 ',1,   1,   2,   119.529,    31.874,     0.000,     0.000,     0.000,     0.000,   1,1
...
0 / END OF LOAD DATA, BEGIN FIXED SHUNT DATA
0 / END OF FIXED SHUNT DATA, BEGIN GENERATOR DATA
    9,'1 ',   771.800,   105.747,   359.659,   -94.160,1.04000,    0,   926.160,   0.00000,   0.17160,   0.00000,   0.00000,1.00000,1,  100.0,   771.800,   231.540,   1,1.0000,   0,1.0000,   0,1.0000,   0,1.0000,0, 1.0000
   16,'1 ',   444.450,    84.691,   163.558,   -36.445,1.04000,    0,   533.340,   0.00000,   0.11320,   0.00000,   0.00000,1.00000,1,  100.0,   444.450,   133.335,   1,1.0000,   0,1.0000,   0,1.0000,   0,1.0000,0, 1.0000
   17,'1 ',   888.896,   150.174,   327.115,   -72.890,1.04000,    0,  1066.680,   0.00000,   0.20480,   0.00000,   0.00000,1.00000,1,  100.0,   888.900,   266.670,   1,1.0000,   0,1.0000,   0,1.0000,   0,1.0000,0, 1.0000
   18,'1 ',   157.600,    21.681,    57.997,   -12.923,1.04000,    0,   189.120,   0.00000,   0.16400,   0.00000,   0.00000,1.00000,1,  100.0,   157.600,    47.280,   1,1.0000,   0,1.0000,   0,1.0000,   0,1.0000,0, 1.0000
   49,'1 ',     1.300,     0.606,     0.606,    -0.159,1.04000,    0,     1.560,   0.00000,   0.28180,   0.00000,   0.00000,1.00000,1,  100.0,     1.300,     0.390,   1,1.0000,   0,1.0000,   0,1.0000,   0,1.0000,0, 1.0000
   50,'1 ',     2.600,     1.212,     1.212,    -0.317,1.04000,    0,     3.120,   0.00000,   0.23070,   0.00000,   0.00000,1.00000,1,  100.0,     2.600,     0.780,   1,1.0000,   0,1.0000,   0,1.0000,   0,1.0000,0, 1.0000
   63,'1 ',     0.960,     1.629,     1.629,    -0.355,1.04000,    0,     3.840,   0.00000,   0.17330,   0.00000,   0.00000,1.00000,0,  100.0,     3.200,     0.960,   1,1.0000,   0,1.0000,   0,1.0000,   0,1.0000,0, 1.0000
   71,'1 ',     4.000,     1.536,     1.536,    -0.196,1.04000,    0,     4.800,   0.00000,   0.15360,   0.00000,   0.00000,1.00000,1,  100.0,     4.000,     1.200,   1,1.0000,   0,1.0000,   0,1.0000,   0,1.0000,0, 1.0000
   72,'1 ',     2.000,     0.768,     0.768,    -0.098,1.04000,    0,     2.400,   0.00000,   0.17240,   0.00000,   0.00000,1.00000,1,  100.0,     2.000,     0.600,   1,1.0000,   0,1.0000,   0,1.0000,   0,1.0000,0, 1.0000
   73,'1 ',     1.400,     0.538,     0.538,    -0.069,1.04000,    0,     1.680,   0.00000,   0.13040,   0.00000,   0.00000,1.00000,1,  100.0,     1.400,     0.420,   1,1.0000,   0,1.0000,   0,1.0000,   0,1.0000,0, 1.0000
   82,'1 ',   361.900,    41.129,   138.970,   -17.733,1.04000,    0,   434.280,   0.00000,   0.13390,   0.00000,   0.00000,1.00000,1,  100.0,   361.900,   108.570,   1,1.0000,   0,1.0000,   0,1.0000,   0,1.0000,0, 1.0000
  125,'1 ',   162.000,    29.173,    62.208,    -7.938,1.04000,    0,   194.400,   0.00000,   0.22480,   0.00000,   0.00000,1.00000,0,  100.0,   162.000,    48.600,   1,1.0000,   0,1.0000,   0,1.0000,   0,1.0000,0, 1.0000
  126,'1 ',   162.000,    48.566,    62.208,    -7.938,1.04000,    0,   194.400,   0.00000,   0.13480,   0.00000,   0.00000,1.00000,0,  100.0,   162.000,    48.600,   1,1.0000,   0,1.0000,   0,1.0000,   0,1.0000,0, 1.0000
  127,'1 ',   162.000,    26.098,    62.208,    -7.938,1.04000,    0,   194.400,   0.00000,   0.29660,   0.00000,   0.00000,1.00000,1,  100.0,   162.000,    48.600,   1,1.0000,   0,1.0000,   0,1.0000,   0,1.0000,0, 1.0000
  128,'1 ',   162.000,    62.208,    62.208,    -7.938,1.04000,    0,   194.400,   0.00000,   0.26850,   0.00000,   0.00000,1.00000,1,  100.0,   162.000,    48.600,   1,1.0000,   0,1.0000,   0,1.0000,   0,1.0000,0, 1.0000
  144,'1 ',   602.550,   111.598,   221.738,   -49.409,1.04000,    0,   723.060,   0.00000,   0.17120,   0.00000,   0.00000,1.00000,1,  100.0,   602.550,   180.765,   1,1.0000,   0,1.0000,   0,1.0000,   0,1.0000,0, 1.0000
  145,'1 ',   300.550,   127.352,   221.738,   -49.409,1.04000,    0,   723.060,   0.00000,   0.16670,   0.00000,   0.00000,1.00000,1,  100.0,   602.550,   180.765,   1,1.0000,   0,1.0000,   0,1.0000,   0,1.0000,0, 1.0000
  167,'1 ',   193.500,    45.923,    74.304,    -9.482,1.04000,    0,   232.200,   0.00000,   0.11760,   0.00000,   0.00000,1.00000,1,  100.0,   193.500,    58.050,   1,1.0000,   0,1.0000,   0,1.0000,   0,1.0000,0, 1.0000
  168,'1 ',   193.500,    32.776,    74.304,    -9.482,1.04000,    0,   232.200,   0.00000,   0.11880,   0.00000,   0.00000,1.00000,1,  100.0,   193.500,    58.050,   1,1.0000,   0,1.0000,   0,1.0000,   0,1.0000,0, 1.0000
  169,'1 ',   387.000,    51.634,   148.608,   -18.963,1.04000,    0,   464.400,   0.00000,   0.15850,   0.00000,   0.00000,1.00000,1,  100.0,   387.000,   116.100,   1,1.0000,   0,1.0000,   0,1.0000,   0,1.0000,0, 1.0000
  197,'1 ',   293.600,    43.369,   136.818,   -35.819,1.04000,    0,   352.320,   0.00000,   0.15340,   0.00000,   0.00000,1.00000,1,  100.0,   293.600,    88.080,   1,1.0000,   0,1.0000,   0,1.0000,   0,1.0000,0, 1.0000
  198,'1 ',   207.300,    52.653,    96.602,   -25.291,1.04000,    0,   248.760,   0.00000,   0.14970,   0.00000,   0.00000,1.00000,1,  100.0,   207.300,    62.190,   1,1.0000,   0,1.0000,   0,1.0000,   0,1.0000,0, 1.0000
  222,'1 ',     5.200,     1.997,     1.997,    -0.255,1.04000,    0,     6.240,   0.00000,   0.10380,   0.00000,   0.00000,1.00000,1,  100.0,     5.200,     1.560,   1,1.0000,   0,1.0000,   0,1.0000,   0,1.0000,0, 1.0000
  223,'1 ',    18.000,     6.912,     6.912,    -0.882,1.04000,    0,    21.600,   0.00000,   0.14880,   0.00000,   0.00000,1.00000,1,  100.0,    18.000,     5.400,   1,1.0000,   0,1.0000,   0,1.0000,   0,1.0000,0, 1.0000
  224,'1 ',   511.200,    40.109,   196.301,   -25.049,1.04000,    0,   613.440,   0.00000,   0.25500,   0.00000,   0.00000,1.00000,1,  100.0,   511.200,   153.360,   1,1.0000,   0,1.0000,   0,1.0000,   0,1.0000,0, 1.0000
  225,'1 ',   514.800,    69.665,   197.683,   -25.225,1.04000,    0,   617.760,   0.00000,   0.13330,   0.00000,   0.00000,1.00000,1,  100.0,   514.800,   154.440,   1,1.0000,   0,1.0000,   0,1.0000,   0,1.0000,0, 1.0000
  231,'1 ',     2.900,     1.351,     1.351,    -0.354,1.04000,    0,     3.480,   0.00000,   0.14140,   0.00000,   0.00000,1.00000,1,  100.0,     2.900,     0.870,   1,1.0000,   0,1.0000,   0,1.0000,   0,1.0000,0, 1.0000
  248,'1 ',    39.960,     4.115,    67.799,   -14.785,1.04000,    0,   159.840,   0.00000,   0.23130,   0.00000,   0.00000,1.00000,0,  100.0,   133.200,    39.960,   1,1.0000,   0,1.0000,   0,1.0000,   0,1.0000,0, 1.0000
  249,'1 ',    39.960,     4.071,    67.799,   -14.785,1.04000,    0,   159.840,   0.00000,   0.17560,   0.00000,   0.00000,1.00000,0,  100.0,   133.200,    39.960,   1,1.0000,   0,1.0000,   0,1.0000,   0,1.0000,0, 1.0000
  250,'1 ',   159.840,    23.265,   271.195,   -59.141,1.04000,    0,   639.360,   0.00000,   0.26890,   0.00000,   0.00000,1.00000,0,  100.0,   532.800,   159.840,   1,1.0000,   0,1.0000,   0,1.0000,   0,1.0000,0, 1.0000
  254,'1 ',     4.100,     1.911,     1.911,    -0.500,1.04000,    0,     4.920,   0.00000,   0.11700,   0.00000,   0.00000,1.00000,0,  100.0,     4.100,     1.230,   1,1.0000,   0,1.0000,   0,1.0000,   0,1.0000,0, 1.0000
  255,'1 ',     3.300,     1.538,     1.538,    -0.403,1.04000,    0,     3.960,   0.00000,   0.11160,   0.00000,   0.00000,1.00000,0,  100.0,     3.300,     0.990,   1,1.0000,   0,1.0000,   0,1.0000,   0,1.0000,0, 1.0000
  256,'1 ',     2.900,     1.351,     1.351,    -0.354,1.04000,    0,     3.480,   0.00000,   0.09920,   0.00000,   0.00000,1.00000,0,  100.0,     2.900,     0.870,   1,1.0000,   0,1.0000,   0,1.0000,   0,1.0000,0, 1.0000
  257,'1 ',     5.400,     2.516,     2.516,    -0.659,1.04000,    0,     6.480,   0.00000,   0.26600,   0.00000,   0.00000,1.00000,0,  100.0,     5.400,     1.620,   1,1.0000,   0,1.0000,   0,1.0000,   0,1.0000,0, 1.0000
  258,'1 ',     1.100,     0.513,     0.513,    -0.134,1.04000,    0,     1.320,   0.00000,   0.20360,   0.00000,   0.00000,1.00000,1,  100.0,     1.100,     0.330,   1,1.0000,   0,1.0000,   0,1.0000,   0,1.0000,0, 1.0000
  264,'1 ',    11.760,    19.953,    19.953,    -4.351,1.04000,    0,    47.040,   0.00000,   0.18890,   0.00000,   0.00000,1.00000,0,  100.0,    39.200,    11.760,   1,1.0000,   0,1.0000,   0,1.0000,   0,1.0000,0, 1.0000
  265,'1 ',     3.180,     5.395,     5.395,    -1.177,1.04000,    0,    12.720,   0.00000,   0.26540,   0.00000,   0.00000,1.00000,0,  100.0,    10.600,     3.180,   1,1.0000,   0,1.0000,   0,1.0000,   0,1.0000,0, 1.0000
  275,'1 ',    30.360,    34.938,    51.511,   -11.233,1.04000,    0,   121.440,   0.00000,   0.12080,   0.00000,   0.00000,1.00000,0,  100.0,   101.200,    30.360,   1,1.0000,   0,1.0000,   0,1.0000,   0,1.0000,0, 1.0000
  301,'1 ',     2.900,     1.351,     1.351,    -0.354,1.04000,    0,     3.480,   0.00000,   0.21590,   0.00000,   0.00000,1.00000,1,  100.0,     2.900,     0.870,   1,1.0000,   0,1.0000,   0,1.0000,   0,1.0000,0, 1.0000
  302,'1 ',     2.900,     1.351,     1.351,    -0.354,1.04000,    0,     3.480,   0.00000,   0.25620,   0.00000,   0.00000,1.00000,1,  100.0,     2.900,     0.870,   1,1.0000,   0,1.0000,   0,1.0000,   0,1.0000,0, 1.0000
  305,'1 ',     1.000,     0.384,     0.384,    -0.049,1.04000,    0,     1.200,   0.00000,   0.20580,   0.00000,   0.00000,1.00000,1,  100.0,     1.000,     0.300,   1,1.0000,   0,1.0000,   0,1.0000,   0,1.0000,0, 1.0000
  306,'1 ',     2.400,     0.922,     0.922,    -0.118,1.04000,    0,     2.880,   0.00000,   0.10650,   0.00000,   0.00000,1.00000,1,  100.0,     2.400,     0.720,   1,1.0000,   0,1.0000,   0,1.0000,   0,1.0000,0, 1.0000
  319,'1 ',    42.300,    16.243,    16.243,    -2.073,1.04000,    0,    50.760,   0.00000,   0.11650,   0.00000,   0.00000,1.00000,1,  100.0,    42.300,    12.690,   1,1.0000,   0,1.0000,   0,1.0000,   0,1.0000,0, 1.0000
  350,'1 ',    15.000,     5.760,     5.760,    -0.735,1.04000,    0,    18.000,   0.00000,   0.15330,   0.00000,   0.00000,1.00000,1,  100.0,    15.000,     4.500,   1,1.0000,   0,1.0000,   0,1.0000,   0,1.0000,0, 1.0000
  351,'1 ',     6.200,     2.381,     2.381,    -0.304,1.04000,    0,     7.440,   0.00000,   0.18030,   0.00000,   0.00000,1.00000,1,  100.0,     6.200,     1.860,   1,1.0000,   0,1.0000,   0,1.0000,   0,1.0000,0, 1.0000
  352,'1 ',    14.400,     5.530,     5.530,    -0.706,1.04000,    0,    17.280,   0.00000,   0.14690,   0.00000,   0.00000,1.00000,1,  100.0,    14.400,     4.320,   1,1.0000,   0,1.0000,   0,1.0000,   0,1.0000,0, 1.0000
  353,'1 ',    74.000,    28.416,    28.416,    -3.626,1.04000,    0,    88.800,   0.00000,   0.23100,   0.00000,   0.00000,1.00000,1,  100.0,    74.000,    22.200,   1,1.0000,   0,1.0000,   0,1.0000,   0,1.0000,0, 1.0000
  361,'1 ',     0.480,     0.814,     0.814,    -0.178,1.04000,    0,     1.920,   0.00000,   0.15630,   0.00000,   0.00000,1.00000,0,  100.0,     1.600,     0.480,   1,1.0000,   0,1.0000,   0,1.0000,   0,1.0000,0, 1.0000
  362,'1 ',     3.300,     5.599,     5.599,    -1.221,1.04000,    0,    13.200,   0.00000,   0.11760,   0.00000,   0.00000,1.00000,0,  100.0,    11.000,     3.300,   1,1.0000,   0,1.0000,   0,1.0000,   0,1.0000,0, 1.0000
  363,'1 ',     0.960,     1.629,     1.629,    -0.355,1.04000,    0,     3.840,   0.00000,   0.16990,   0.00000,   0.00000,1.00000,0,  100.0,     3.200,     0.960,   1,1.0000,   0,1.0000,   0,1.0000,   0,1.0000,0, 1.0000
  388,'1 ',     3.000,     5.090,     5.090,    -1.110,1.04000,    0,    12.000,   0.00000,   0.15070,   0.00000,   0.00000,1.00000,0,  100.0,    10.000,     3.000,   1,1.0000,   0,1.0000,   0,1.0000,   0,1.0000,0, 1.0000
  389,'1 ',    52.000,    17.954,    88.227,   -19.240,1.04000,    0,   208.000,   0.00000,   0.10290,   0.00000,   0.00000,1.00000,0,  100.0,   173.333,    52.000,   1,1.0000,   0,1.0000,   0,1.0000,   0,1.0000,0, 1.0000
  390,'1 ',    52.000,    23.710,    88.227,   -19.240,1.04000,    0,   208.000,   0.00000,   0.23500,   0.00000,   0.00000,1.00000,0,  100.0,   173.333,    52.000,   1,1.0000,   0,1.0000,   0,1.0000,   0,1.0000,0, 1.0000
  391,'1 ',    52.000,    26.274,    88.227,   -19.240,1.04000,    0,   208.000,   0.00000,   0.29800,   0.00000,   0.00000,1.00000,0,  100.0,   173.333,    52.000,   1,1.0000,   0,1.0000,   0,1.0000,   0,1.0000,0, 1.0000
  392,'1 ',    34.920,    19.534,    59.248,   -12.920,1.04000,    0,   139.680,   0.00000,   0.10760,   0.00000,   0.00000,1.00000,0,  100.0,   116.400,    34.920,   1,1.0000,   0,1.0000,   0,1.0000,   0,1.0000,0, 1.0000
  393,'1 ',    34.920,    19.300,    59.248,   -12.920,1.04000,    0,   139.680,   0.00000,   0.21060,   0.00000,   0.00000,1.00000,0,  100.0,   116.400,    34.920,   1,1.0000,   0,1.0000,   0,1.0000,   0,1.0000,0, 1.0000
  394,'1 ',    34.920,    28.977,    59.248,   -12.920,1.04000,    0,   139.680,   0.00000,   0.11110,   0.00000,   0.00000,1.00000,0,  100.0,   116.400,    34.920,   1,1.0000,   0,1.0000,   0,1.0000,   0,1.0000,0, 1.0000
  395,'1 ',    34.920,    11.199,    59.248,   -12.920,1.04000,    0,   139.680,   0.00000,   0.13710,   0.00000,   0.00000,1.00000,0,  100.0,   116.400,    34.920,   1,1.0000,   0,1.0000,   0,1.0000,   0,1.0000,0, 1.0000
  396,'1 ',    34.920,    29.790,    59.248,   -12.920,1.04000,    0,   139.680,   0.00000,   0.15610,   0.00000,   0.00000,1.00000,0,  100.0,   116.400,    34.920,   1,1.0000,   0,1.0000,   0,1.0000,   0,1.0000,0, 1.0000
  409,'1 ',    30.000,    17.565,    50.900,   -11.100,1.04000,    0,   120.000,   0.00000,   0.10330,   0.00000,   0.00000,1.00000,0,  100.0,   100.000,    30.000,   1,1.0000,   0,1.0000,   0,1.0000,   0,1.0000,0, 1.0000
  410,'1 ',    77.967,    14.906,    69.708,   -15.201,1.04000,    0,   164.340,   0.00000,   0.11680,   0.00000,   0.00000,1.00000,1,  100.0,   136.950,    41.085,   1,1.0000,   0,1.0000,   0,1.0000,   0,1.0000,0, 1.0000
  411,'1 ',    79.431,    25.560,    69.708,   -15.201,1.04000,    0,   164.340,   0.00000,   0.21310,   0.00000,   0.00000,1.00000,1,  100.0,   136.950,    41.085,   1,1.0000,   0,1.0000,   0,1.0000,   0,1.0000,0, 1.0000
  412,'1 ',    79.431,    22.365,    69.708,   -15.201,1.04000,    0,   164.340,   0.00000,   0.19290,   0.00000,   0.00000,1.00000,1,  100.0,   136.950,    41.085,   1,1.0000,   0,1.0000,   0,1.0000,   0,1.0000,0, 1.0000
  413,'1 ',    60.258,    14.632,    69.708,   -15.201,1.04000,    0,   164.340,   0.00000,   0.23980,   0.00000,   0.00000,1.00000,1,  100.0,   136.950,    41.085,   1,1.0000,   0,1.0000,   0,1.0000,   0,1.0000,0, 1.0000
  414,'1 ',    33.330,    23.748,    56.550,   -12.332,1.04000,    0,   133.320,   0.00000,   0.18880,   0.00000,   0.00000,1.00000,0,  100.0,   111.100,    33.330,   1,1.0000,   0,1.0000,   0,1.0000,   0,1.0000,0, 1.0000
  430,'1 ',     1.000,     0.384,     0.384,    -0.049,1.04000,    0,     1.200,   0.00000,   0.15220,   0.00000,   0.00000,1.00000,1,  100.0,     1.000,     0.300,   1,1.0000,   0,1.0000,   0,1.0000,   0,1.0000,0, 1.0000
  431,'1 ',     3.300,     1.267,     1.267,    -0.162,1.04000,    0,     3.960,   0.00000,   0.13150,   0.00000,   0.00000,1.00000,1,  100.0,     3.300,     0.990,   1,1.0000,   0,1.0000,   0,1.0000,   0,1.0000,0, 1.0000
  432,'1 ',     1.200,     0.461,     0.461,    -0.059,1.04000,    0,     1.440,   0.00000,   0.12980,   0.00000,   0.00000,1.00000,1,  100.0,     1.200,     0.360,   1,1.0000,   0,1.0000,   0,1.0000,   0,1.0000,0, 1.0000
  433,'1 ',     6.700,     2.573,     2.573,    -0.328,1.04000,    0,     8.040,   0.00000,   0.33480,   0.00000,   0.00000,1.00000,1,  100.0,     6.700,     2.010,   1,1.0000,   0,1.0000,   0,1.0000,   0,1.0000,0, 1.0000
  434,'1 ',     4.300,     1.651,     1.651,    -0.211,1.04000,    0,     5.160,   0.00000,   0.14120,   0.00000,   0.00000,1.00000,1,  100.0,     4.300,     1.290,   1,1.0000,   0,1.0000,   0,1.0000,   0,1.0000,0, 1.0000
  435,'1 ',   197.000,    30.332,    75.648,    -9.653,1.04000,    0,   236.400,   0.00000,   0.22990,   0.00000,   0.00000,1.00000,0,  100.0,   197.000,    59.100,   1,1.0000,   0,1.0000,   0,1.0000,   0,1.0000,0, 1.0000
  436,'1 ',   197.000,    53.369,    75.648,    -9.653,1.04000,    0,   236.400,   0.00000,   0.17570,   0.00000,   0.00000,1.00000,0,  100.0,   197.000,    59.100,   1,1.0000,   0,1.0000,   0,1.0000,   0,1.0000,0, 1.0000
  437,'1 ',   197.000,    52.732,    75.648,    -9.653,1.04000,    0,   236.400,   0.00000,   0.32640,   0.00000,   0.00000,1.00000,1,  100.0,   197.000,    59.100,   1,1.0000,   0,1.0000,   0,1.0000,   0,1.0000,0, 1.0000
  438,'1 ',   197.000,    40.141,    75.648,    -9.653,1.04000,    0,   236.400,   0.00000,   0.27400,   0.00000,   0.00000,1.00000,1,  100.0,   197.000,    59.100,   1,1.0000,   0,1.0000,   0,1.0000,   0,1.0000,0, 1.0000
  439,'1 ',   197.000,    65.631,    75.648,    -9.653,1.04000,    0,   236.400,   0.00000,   0.14700,   0.00000,   0.00000,1.00000,1,  100.0,   197.000,    59.100,   1,1.0000,   0,1.0000,   0,1.0000,   0,1.0000,0, 1.0000
  442,'1 ',    32.400,    54.972,    54.972,   -11.988,1.04000,    0,   129.600,   0.00000,   0.26450,   0.00000,   0.00000,1.00000,0,  100.0,   108.000,    32.400,   1,1.0000,   0,1.0000,   0,1.0000,   0,1.0000,0, 1.0000
  443,'1 ',    52.500,    71.049,    89.075,   -19.425,1.04000,    0,   210.000,   0.00000,   0.24790,   0.00000,   0.00000,1.00000,0,  100.0,   175.000,    52.500,   1,1.0000,   0,1.0000,   0,1.0000,   0,1.0000,0, 1.0000
  444,'1 ',     0.990,     1.680,     1.680,    -0.366,1.04000,    0,     3.960,   0.00000,   0.17190,   0.00000,   0.00000,1.00000,0,  100.0,     3.300,     0.990,   1,1.0000,   0,1.0000,   0,1.0000,   0,1.0000,0, 1.0000
  455,'1 ',    66.850,    56.511,   113.422,   -24.735,1.04000,    0,   267.400,   0.00000,   0.24990,   0.00000,   0.00000,1.00000,1,  100.0,   222.833,    66.850,   1,1.0000,   0,1.0000,   0,1.0000,   0,1.0000,0, 1.0000
  456,'1 ',   133.700,    55.651,   226.844,   -49.469,1.04000,    0,   534.800,   0.00000,   0.29070,   0.00000,   0.00000,1.00000,1,  100.0,   445.667,   133.700,   1,1.0000,   0,1.0000,   0,1.0000,   0,1.0000,0, 1.0000
  458,'1 ',   109.600,     0.000,     0.000,     0.000,1.04000,    0,   131.520,   0.00000,   0.19880,   0.00000,   0.00000,1.00000,1,  100.0,   109.600,    32.880,   1,1.0000,   0,1.0000,   0,1.0000,   0,1.0000,0, 1.0000
  463,'1 ',     7.200,     3.355,     3.355,    -0.878,1.04000,    0,     8.640,   0.00000,   0.23480,   0.00000,   0.00000,1.00000,0,  100.0,     7.200,     2.160,   1,1.0000,   0,1.0000,   0,1.0000,   0,1.0000,0, 1.0000
  480,'1 ',    56.000,     9.621,    21.504,    -2.744,1.04000,    0,    67.200,   0.00000,   0.12360,   0.00000,   0.00000,1.00000,1,  100.0,    56.000,    16.800,   1,1.0000,   0,1.0000,   0,1.0000,   0,1.0000,0, 1.0000
  481,'1 ',    45.000,    12.105,    17.280,    -2.205,1.04000,    0,    54.000,   0.00000,   0.30150,   0.00000,   0.00000,1.00000,1,  100.0,    45.000,    13.500,   1,1.0000,   0,1.0000,   0,1.0000,   0,1.0000,0, 1.0000
...